12
Energy =
C     0.0316189   -1.8716484    0.0090018 
C     1.4368375   -1.8717248    0.0094669 
C     2.1395040   -0.6547913    0.0089444 
C     1.4369634    0.5622370    0.0079498 
C     0.0317384    0.5622994    0.0075012 
C    -0.6709125   -0.6546504    0.0080132 
H    -0.5187109   -2.8247508    0.0094192 
H     1.9870902   -2.8248850    0.0101532 
H     3.2401124   -0.6548114    0.0092103 
H     1.9873557    1.5153399    0.0073185 
H    -0.5185395    1.5154571    0.0066418 
H    -1.7715001   -0.6545632    0.0075465 
